 12
  title
  C1 10.25  15.42  86.76
  C1 10.98  12.6   83.1 
  C1 10.32  14.3   78.8 
  C1 12.59  17.2   76.11
  C1 14.39  12.5   87.89
  C1 16.54  11.94  84.1 
  C1 14.92  10.84  80.21
  C1 15.84  13.14  76.72
  Na 11.18  12.6   91.  
  Na 11.98  16.21  90.83
  Qa 11.64  18.1   94.6 
  P5 11.25  13.6   96.05













